1M17_AQ4
     RDKit          3D

 29 31  0  0  0  0  0  0  0  0999 V2000
   29.5520   -1.9890   53.4960 C   0  0  0  0  0  0  0  0  0  0  0  0
   28.8410   -1.0220   53.4320 C   0  0  0  0  0  0  0  0  0  0  0  0
   27.9890    0.0940   53.3660 C   0  0  0  0  0  0  0  0  0  0  0  0
   26.6060   -0.1190   53.3230 C   0  0  0  0  0  0  0  0  0  0  0  0
   25.7250    0.9720   53.2580 C   0  0  0  0  0  0  0  0  0  0  0  0
   24.2890    0.7120   53.2150 N   0  0  0  0  0  0  0  0  0  0  0  0
   23.4100   -0.2170   53.9080 C   0  0  0  0  0  0  0  0  0  0  0  0
   22.0370   -0.3090   53.5720 C   0  0  0  0  0  0  0  0  0  0  0  0
   21.5010    0.4760   52.5460 C   0  0  0  0  0  0  0  0  0  0  0  0
   20.1430    0.3760   52.2180 C   0  0  0  0  0  0  0  0  0  0  0  0
   19.5890    1.2200   51.1200 O   0  0  0  0  0  0  0  0  0  0  0  0
   20.5500    1.3620   50.0410 C   0  0  0  0  0  0  0  0  0  0  0  0
   20.2350    2.6450   49.2620 C   0  0  0  0  0  0  0  0  0  0  0  0
   18.9900    2.4850   48.5430 O   0  0  0  0  0  0  0  0  0  0  0  0
   17.7120    2.6180   49.3990 C   0  0  0  0  0  0  0  0  0  0  0  0
   19.3010   -0.5350   52.9230 C   0  0  0  0  0  0  0  0  0  0  0  0
   17.8280   -0.6790   52.5970 O   0  0  0  0  0  0  0  0  0  0  0  0
   17.2270    0.6010   52.2200 C   0  0  0  0  0  0  0  0  0  0  0  0
   15.7030    0.4940   52.0660 C   0  0  0  0  0  0  0  0  0  0  0  0
   15.1080    0.1670   53.3350 O   0  0  0  0  0  0  0  0  0  0  0  0
   13.8430   -0.6950   53.2210 C   0  0  0  0  0  0  0  0  0  0  0  0
   19.8450   -1.3180   53.9420 C   0  0  0  0  0  0  0  0  0  0  0  0
   21.1990   -1.2220   54.2640 C   0  0  0  0  0  0  0  0  0  0  0  0
   21.7470   -2.0390   55.3190 N   0  0  0  0  0  0  0  0  0  0  0  0
   23.1170   -1.9340   55.6420 C   0  0  0  0  0  0  0  0  0  0  0  0
   23.9430   -1.0230   54.9400 N   0  0  0  0  0  0  0  0  0  0  0  0
   26.2340    2.2920   53.2360 C   0  0  0  0  0  0  0  0  0  0  0  0
   27.6250    2.5090   53.2790 C   0  0  0  0  0  0  0  0  0  0  0  0
   28.5080    1.4100   53.3440 C   0  0  0  0  0  0  0  0  0  0  0  0
  2  1  3  0
  3  2  1  0
  4  3  2  0
  5  4  1  0
  6  5  1  0
  7  6  1  0
  8  7  2  0
  9  8  1  0
 10  9  2  0
 11 10  1  0
 12 11  1  0
 13 12  1  0
 14 13  1  0
 15 14  1  0
 16 10  1  0
 17 16  1  0
 18 17  1  0
 19 18  1  0
 20 19  1  0
 21 20  1  0
 22 16  2  0
 23 22  1  0
 23  8  1  0
 24 23  2  0
 25 24  1  0
 26  7  1  0
 26 25  2  0
 27  5  2  0
 28 27  1  0
 29 28  2  0
 29  3  1  0
M  END
$$$$
