
     RDKit          2D

  2  1  0  0  0  0  0  0  0  0999 V2000
   -7.1272    1.4069    0.0000 O   0  0  0  0  0  0  0  0  0  0  0  0
   -7.5566    2.8441    0.0000 C   0  0  0  0  0  0  0  0  0  0  0  0
  2  1  1  0
M  END
>  <attachment_idx>  (1) 
0

>  <count>  (1) 
1595

$$$$

     RDKit          2D

  4  3  0  0  0  0  0  0  0  0999 V2000
   -5.2744   -1.0422    0.0000 C   0  0  0  0  0  0  0  0  0  0  0  0
   -6.2336   -2.1954    0.0000 C   0  0  0  0  0  0  0  0  0  0  0  0
   -5.7936    0.3651    0.0000 O   0  0  0  0  0  0  0  0  0  0  0  0
   -7.7119   -1.9414    0.0000 C   0  0  0  0  0  0  0  0  0  0  0  0
  2  1  1  0
  1  3  2  0
  4  2  2  0
M  END
>  <attachment_idx>  (2) 
0

>  <count>  (2) 
1099

$$$$

     RDKit          2D

  6  6  0  0  0  0  0  0  0  0999 V2000
    2.8885   -1.1893    0.0000 C   0  0  0  0  0  0  0  0  0  0  0  0
    3.0424   -2.6814    0.0000 C   0  0  0  0  0  0  0  0  0  0  0  0
    4.1038   -0.3100    0.0000 C   0  0  0  0  0  0  0  0  0  0  0  0
    4.4116   -3.2942    0.0000 C   0  0  0  0  0  0  0  0  0  0  0  0
    5.4729   -0.9227    0.0000 C   0  0  0  0  0  0  0  0  0  0  0  0
    5.6268   -2.4148    0.0000 C   0  0  0  0  0  0  0  0  0  0  0  0
  2  1  2  0
  1  3  1  0
  4  2  1  0
  3  5  2  0
  6  4  2  0
  5  6  1  0
M  END
>  <attachment_idx>  (3) 
0

>  <count>  (3) 
721

$$$$

     RDKit          2D

  3  2  0  0  0  0  0  0  0  0999 V2000
   -6.8353    1.3441    0.0000 N   0  0  0  0  0  0  0  0  0  0  0  0
   -7.2755    2.7781    0.0000 C   0  0  0  0  0  0  0  0  0  0  0  0
   -7.8571    0.2459    0.0000 C   0  0  0  0  0  0  0  0  0  0  0  0
  2  1  1  0
  1  3  1  0
M  END
>  <attachment_idx>  (4) 
0

>  <count>  (4) 
693

$$$$

     RDKit          2D

  8  8  0  0  0  0  0  0  0  0999 V2000
    5.4058   -0.3207    0.0000 C   0  0  0  0  0  0  0  0  0  0  0  0
    5.8098   -1.7653    0.0000 C   0  0  0  0  0  0  0  0  0  0  0  0
    6.4549    0.7515    0.0000 C   0  0  0  0  0  0  0  0  0  0  0  0
    7.2628   -2.1377    0.0000 C   0  0  0  0  0  0  0  0  0  0  0  0
    7.9079    0.3790    0.0000 C   0  0  0  0  0  0  0  0  0  0  0  0
    8.3119   -1.0656    0.0000 C   0  0  0  0  0  0  0  0  0  0  0  0
    8.9570    1.4511    0.0000 Cl  0  0  0  0  0  0  0  0  0  0  0  0
    9.7649   -1.4380    0.0000 F   0  0  0  0  0  0  0  0  0  0  0  0
  1  2  2  0
  3  1  1  0
  2  4  1  0
  5  3  2  0
  4  6  2  0
  6  5  1  0
  5  7  1  0
  6  8  1  0
M  END
>  <attachment_idx>  (5) 
0

>  <count>  (5) 
630

$$$$

     RDKit          2D

  2  1  0  0  0  0  0  0  0  0999 V2000
    6.0328   -1.7240    0.0000 C   0  0  0  0  0  0  0  0  0  0  0  0
    7.5182   -1.9332    0.0000 C   0  0  0  0  0  0  0  0  0  0  0  0
  2  1  1  0
M  END
>  <attachment_idx>  (6) 
0

>  <count>  (6) 
483

$$$$

     RDKit          2D

  5  4  0  0  0  0  0  0  0  0999 V2000
   -5.8611    1.6075    0.0000 C   0  0  0  0  0  0  0  0  0  0  0  0
   -6.1060    3.0874    0.0000 C   0  0  0  0  0  0  0  0  0  0  0  0
   -7.5858    2.8425    0.0000 C   0  0  0  0  0  0  0  0  0  0  0  0
   -4.6261    3.3323    0.0000 C   0  0  0  0  0  0  0  0  0  0  0  0
   -6.3509    4.5673    0.0000 C   0  0  0  0  0  0  0  0  0  0  0  0
  2  1  1  0
  3  2  1  0
  2  4  1  0
  2  5  1  0
M  END
>  <attachment_idx>  (7) 
0

>  <count>  (7) 
472

$$$$

     RDKit          2D

  7  7  0  0  0  0  0  0  0  0999 V2000
   -6.9252    0.8739    0.0000 N   0  0  0  0  0  0  0  0  0  0  0  0
   -7.8023    2.0907    0.0000 C   0  0  0  0  0  0  0  0  0  0  0  0
   -7.5403   -0.4941    0.0000 C   0  0  0  0  0  0  0  0  0  0  0  0
   -9.2947    1.9394    0.0000 C   0  0  0  0  0  0  0  0  0  0  0  0
   -9.0327   -0.6454    0.0000 C   0  0  0  0  0  0  0  0  0  0  0  0
   -9.9099    0.5714    0.0000 N   0  0  0  0  0  0  0  0  0  0  0  0
  -11.4022    0.4201    0.0000 C   0  0  0  0  0  0  0  0  0  0  0  0
  2  1  1  0
  1  3  1  0
  4  2  1  0
  3  5  1  0
  6  4  1  0
  5  6  1  0
  7  6  1  0
M  END
>  <attachment_idx>  (8) 
0

>  <count>  (8) 
380

$$$$

     RDKit          2D

  7  7  0  0  0  0  0  0  0  0999 V2000
    2.8173    0.3317    0.0000 C   0  0  0  0  0  0  0  0  0  0  0  0
    3.4149   -1.0441    0.0000 C   0  0  0  0  0  0  0  0  0  0  0  0
    3.7099    1.5371    0.0000 C   0  0  0  0  0  0  0  0  0  0  0  0
    4.9052   -1.2145    0.0000 C   0  0  0  0  0  0  0  0  0  0  0  0
    5.2002    1.3668    0.0000 C   0  0  0  0  0  0  0  0  0  0  0  0
    5.7979   -0.0090    0.0000 C   0  0  0  0  0  0  0  0  0  0  0  0
    6.0929    2.5722    0.0000 Br  0  0  0  0  0  0  0  0  0  0  0  0
  1  2  2  0
  3  1  1  0
  2  4  1  0
  5  3  2  0
  4  6  2  0
  6  5  1  0
  5  7  1  0
M  END
>  <attachment_idx>  (9) 
0

>  <count>  (9) 
342

$$$$

     RDKit          2D

  4  3  0  0  0  0  0  0  0  0999 V2000
    4.3172    1.1686    0.0000 C   0  0  0  0  0  0  0  0  0  0  0  0
    5.0531    2.4756    0.0000 F   0  0  0  0  0  0  0  0  0  0  0  0
    5.6242    0.4327    0.0000 F   0  0  0  0  0  0  0  0  0  0  0  0
    3.0101    1.9045    0.0000 F   0  0  0  0  0  0  0  0  0  0  0  0
  1  2  1  0
  1  3  1  0
  1  4  1  0
M  END
>  <attachment_idx>  (10) 
0

>  <count>  (10) 
331

$$$$

     RDKit          2D

  7  7  0  0  0  0  0  0  0  0999 V2000
   -1.9010    0.8998    0.0000 C   0  0  0  0  0  0  0  0  0  0  0  0
   -2.8723    2.0429    0.0000 C   0  0  0  0  0  0  0  0  0  0  0  0
   -2.4053   -0.5129    0.0000 C   0  0  0  0  0  0  0  0  0  0  0  0
   -4.3479    1.7733    0.0000 C   0  0  0  0  0  0  0  0  0  0  0  0
   -3.8809   -0.7825    0.0000 C   0  0  0  0  0  0  0  0  0  0  0  0
   -4.8522    0.3606    0.0000 C   0  0  0  0  0  0  0  0  0  0  0  0
   -4.3852   -2.1952    0.0000 F   0  0  0  0  0  0  0  0  0  0  0  0
  2  1  2  0
  1  3  1  0
  4  2  1  0
  3  5  2  0
  6  4  2  0
  7  5  1  0
  5  6  1  0
M  END
>  <attachment_idx>  (11) 
0

>  <count>  (11) 
317

$$$$

     RDKit          2D

  3  2  0  0  0  0  0  0  0  0999 V2000
   -8.3760   -0.1854    0.0000 C   0  0  0  0  0  0  0  0  0  0  0  0
   -9.7597    0.3936    0.0000 C   0  0  0  0  0  0  0  0  0  0  0  0
   -7.1827    0.7234    0.0000 C   0  0  0  0  0  0  0  0  0  0  0  0
  2  1  1  0
  1  3  1  0
M  END
>  <attachment_idx>  (12) 
0

>  <count>  (12) 
296

$$$$

     RDKit          2D

  6  6  0  0  0  0  0  0  0  0999 V2000
    6.6839    0.1493    0.0000 N   0  0  0  0  0  0  0  0  0  0  0  0
    6.6146   -1.3491    0.0000 C   0  0  0  0  0  0  0  0  0  0  0  0
    8.0162    0.8385    0.0000 C   0  0  0  0  0  0  0  0  0  0  0  0
    7.8776   -2.1583    0.0000 C   0  0  0  0  0  0  0  0  0  0  0  0
    9.2792    0.0293    0.0000 C   0  0  0  0  0  0  0  0  0  0  0  0
    9.2099   -1.4691    0.0000 O   0  0  0  0  0  0  0  0  0  0  0  0
  1  2  1  0
  3  1  1  0
  2  4  1  0
  5  3  1  0
  4  6  1  0
  6  5  1  0
M  END
>  <attachment_idx>  (13) 
0

>  <count>  (13) 
287

$$$$

     RDKit          2D

  8  8  0  0  0  0  0  0  0  0999 V2000
   -3.4398   -1.0174    0.0000 C   0  0  0  0  0  0  0  0  0  0  0  0
   -3.9665    0.3870    0.0000 C   0  0  0  0  0  0  0  0  0  0  0  0
   -4.3928   -2.1758    0.0000 C   0  0  0  0  0  0  0  0  0  0  0  0
   -5.4461    0.6332    0.0000 C   0  0  0  0  0  0  0  0  0  0  0  0
   -3.8661   -3.5803    0.0000 C   0  0  0  0  0  0  0  0  0  0  0  0
   -5.8724   -1.9297    0.0000 N   0  0  0  0  0  0  0  0  0  0  0  0
   -6.3991   -0.5252    0.0000 C   0  0  0  0  0  0  0  0  0  0  0  0
   -7.8788   -0.2791    0.0000 F   0  0  0  0  0  0  0  0  0  0  0  0
  2  1  2  0
  1  3  1  0
  4  2  1  0
  5  3  1  0
  3  6  2  0
  7  4  2  0
  6  7  1  0
  7  8  1  0
M  END
>  <attachment_idx>  (14) 
0

>  <count>  (14) 
195

$$$$

     RDKit          2D

  7  7  0  0  0  0  0  0  0  0999 V2000
   -6.4845    0.8350    0.0000 C   0  0  0  0  0  0  0  0  0  0  0  0
   -6.7189    2.3166    0.0000 C   0  0  0  0  0  0  0  0  0  0  0  0
   -7.6504   -0.1088    0.0000 C   0  0  0  0  0  0  0  0  0  0  0  0
   -8.1192    2.8543    0.0000 C   0  0  0  0  0  0  0  0  0  0  0  0
   -9.0507    0.4290    0.0000 C   0  0  0  0  0  0  0  0  0  0  0  0
   -9.2851    1.9106    0.0000 C   0  0  0  0  0  0  0  0  0  0  0  0
  -10.6854    2.4484    0.0000 F   0  0  0  0  0  0  0  0  0  0  0  0
  2  1  2  0
  1  3  1  0
  4  2  1  0
  3  5  2  0
  6  4  2  0
  5  6  1  0
  7  6  1  0
M  END
>  <attachment_idx>  (15) 
0

>  <count>  (15) 
142

$$$$

     RDKit          2D

  3  2  0  0  0  0  0  0  0  0999 V2000
  -10.3428    3.5374    0.0000 C   0  0  0  0  0  0  0  0  0  0  0  0
  -11.2180    4.7556    0.0000 N   0  0  0  0  0  0  0  0  0  0  0  0
   -8.8502    3.6863    0.0000 O   0  0  0  0  0  0  0  0  0  0  0  0
  2  1  1  0
  1  3  2  0
M  END
>  <attachment_idx>  (16) 
0

>  <count>  (16) 
135

$$$$

     RDKit          2D

  3  2  0  0  0  0  0  0  0  0999 V2000
   -1.4886    3.9999    0.0000 C   0  0  0  0  0  0  0  0  0  0  0  0
   -2.5201    2.9108    0.0000 F   0  0  0  0  0  0  0  0  0  0  0  0
   -1.9160    5.4377    0.0000 F   0  0  0  0  0  0  0  0  0  0  0  0
  1  2  1  0
  1  3  1  0
M  END
>  <attachment_idx>  (17) 
0

>  <count>  (17) 
129

$$$$

     RDKit          2D

  3  2  0  0  0  0  0  0  0  0999 V2000
    5.8693   -1.3163    0.0000 C   0  0  0  0  0  0  0  0  0  0  0  0
    7.3629   -1.4551    0.0000 C   0  0  0  0  0  0  0  0  0  0  0  0
    5.0023   -2.5404    0.0000 O   0  0  0  0  0  0  0  0  0  0  0  0
  2  1  1  0
  1  3  2  0
M  END
>  <attachment_idx>  (18) 
0

>  <count>  (18) 
126

$$$$

     RDKit          2D

  3  2  0  0  0  0  0  0  0  0999 V2000
   -4.6962    2.7158    0.0000 C   0  0  0  0  0  0  0  0  0  0  0  0
   -6.1214    3.1834    0.0000 C   0  0  0  0  0  0  0  0  0  0  0  0
   -6.4291    4.6515    0.0000 O   0  0  0  0  0  0  0  0  0  0  0  0
  2  1  1  0
  3  2  1  0
M  END
>  <attachment_idx>  (19) 
0

>  <count>  (19) 
108

$$$$

     RDKit          2D

  6  6  0  0  0  0  0  0  0  0999 V2000
   -6.3019   -0.9962    0.0000 C   0  0  0  0  0  0  0  0  0  0  0  0
   -6.6770    0.4561    0.0000 C   0  0  0  0  0  0  0  0  0  0  0  0
   -7.3722   -2.0472    0.0000 N   0  0  0  0  0  0  0  0  0  0  0  0
   -8.1223    0.8575    0.0000 C   0  0  0  0  0  0  0  0  0  0  0  0
   -8.8175   -1.6459    0.0000 C   0  0  0  0  0  0  0  0  0  0  0  0
   -9.1925   -0.1935    0.0000 C   0  0  0  0  0  0  0  0  0  0  0  0
  1  2  1  0
  3  1  2  0
  2  4  2  0
  5  3  1  0
  4  6  1  0
  6  5  2  0
M  END
>  <attachment_idx>  (20) 
0

>  <count>  (20) 
107

$$$$

     RDKit          2D

  8  8  0  0  0  0  0  0  0  0999 V2000
   -6.0511    0.5997    0.0000 C   0  0  0  0  0  0  0  0  0  0  0  0
   -7.0435    1.7245    0.0000 C   0  0  0  0  0  0  0  0  0  0  0  0
   -6.5290   -0.8221    0.0000 C   0  0  0  0  0  0  0  0  0  0  0  0
   -8.5138    1.4274    0.0000 C   0  0  0  0  0  0  0  0  0  0  0  0
   -7.9993   -1.1192    0.0000 C   0  0  0  0  0  0  0  0  0  0  0  0
   -5.5366   -1.9469    0.0000 F   0  0  0  0  0  0  0  0  0  0  0  0
   -8.9917    0.0056    0.0000 C   0  0  0  0  0  0  0  0  0  0  0  0
  -10.4620   -0.2915    0.0000 Br  0  0  0  0  0  0  0  0  0  0  0  0
  1  2  2  0
  3  1  1  0
  2  4  1  0
  5  3  2  0
  3  6  1  0
  4  7  2  0
  7  5  1  0
  7  8  1  0
M  END
>  <attachment_idx>  (21) 
0

>  <count>  (21) 
97

$$$$

     RDKit          2D

  6  6  0  0  0  0  0  0  0  0999 V2000
   -5.5484   -0.3352    0.0000 C   0  0  0  0  0  0  0  0  0  0  0  0
   -6.9325    0.2430    0.0000 C   0  0  0  0  0  0  0  0  0  0  0  0
   -5.3572   -1.8230    0.0000 C   0  0  0  0  0  0  0  0  0  0  0  0
   -8.1253   -0.6665    0.0000 C   0  0  0  0  0  0  0  0  0  0  0  0
   -6.5500   -2.7325    0.0000 N   0  0  0  0  0  0  0  0  0  0  0  0
   -7.9340   -2.1543    0.0000 C   0  0  0  0  0  0  0  0  0  0  0  0
  1  2  2  0
  3  1  1  0
  2  4  1  0
  5  3  2  0
  4  6  2  0
  6  5  1  0
M  END
>  <attachment_idx>  (22) 
0

>  <count>  (22) 
95

$$$$

     RDKit          2D

  4  3  0  0  0  0  0  0  0  0999 V2000
    8.8924   -0.9256    0.0000 C   0  0  0  0  0  0  0  0  0  0  0  0
   10.1004   -1.8148    0.0000 C   0  0  0  0  0  0  0  0  0  0  0  0
    7.6843   -0.0364    0.0000 C   0  0  0  0  0  0  0  0  0  0  0  0
    9.7816    0.2824    0.0000 C   0  0  0  0  0  0  0  0  0  0  0  0
  1  2  1  0
  1  3  1  0
  1  4  1  0
M  END
>  <attachment_idx>  (23) 
0

>  <count>  (23) 
94

$$$$

     RDKit          2D

  3  3  0  0  0  0  0  0  0  0999 V2000
    9.2212   -1.4598    0.0000 C   0  0  0  0  0  0  0  0  0  0  0  0
   10.6767   -1.8223    0.0000 C   0  0  0  0  0  0  0  0  0  0  0  0
    9.6350   -2.9016    0.0000 C   0  0  0  0  0  0  0  0  0  0  0  0
  1  2  1  0
  3  1  1  0
  2  3  1  0
M  END
>  <attachment_idx>  (24) 
0

>  <count>  (24) 
91

$$$$

     RDKit          2D

  7  7  0  0  0  0  0  0  0  0999 V2000
   -2.8181    1.0753    0.0000 C   0  0  0  0  0  0  0  0  0  0  0  0
   -3.1088    2.5469    0.0000 C   0  0  0  0  0  0  0  0  0  0  0  0
   -3.9471    0.0878    0.0000 C   0  0  0  0  0  0  0  0  0  0  0  0
   -4.5286    3.0309    0.0000 C   0  0  0  0  0  0  0  0  0  0  0  0
   -5.3669    0.5718    0.0000 C   0  0  0  0  0  0  0  0  0  0  0  0
   -5.6576    2.0433    0.0000 C   0  0  0  0  0  0  0  0  0  0  0  0
   -6.4959   -0.4158    0.0000 Cl  0  0  0  0  0  0  0  0  0  0  0  0
  2  1  2  0
  1  3  1  0
  4  2  1  0
  3  5  2  0
  6  4  2  0
  7  5  1  0
  5  6  1  0
M  END
>  <attachment_idx>  (25) 
0

>  <count>  (25) 
87

$$$$

     RDKit          2D

  8  8  0  0  0  0  0  0  0  0999 V2000
    5.7712   -1.3403    0.0000 C   0  0  0  0  0  0  0  0  0  0  0  0
    5.8147   -2.8396    0.0000 C   0  0  0  0  0  0  0  0  0  0  0  0
    7.0479   -0.5529    0.0000 C   0  0  0  0  0  0  0  0  0  0  0  0
    7.1350   -3.5516    0.0000 C   0  0  0  0  0  0  0  0  0  0  0  0
    8.3681   -1.2648    0.0000 C   0  0  0  0  0  0  0  0  0  0  0  0
    8.4117   -2.7642    0.0000 C   0  0  0  0  0  0  0  0  0  0  0  0
    9.6449   -0.4774    0.0000 C   0  0  0  0  0  0  0  0  0  0  0  0
   10.9216    0.3100    0.0000 C   0  0  0  0  0  0  0  0  0  0  0  0
  2  1  2  0
  1  3  1  0
  4  2  1  0
  3  5  2  0
  6  4  2  0
  7  5  1  0
  5  6  1  0
  8  7  3  0
M  END
>  <attachment_idx>  (26) 
0

>  <count>  (26) 
87

$$$$

     RDKit          2D

  2  1  0  0  0  0  0  0  0  0999 V2000
    8.6395    0.4689    0.0000 C   0  0  0  0  0  0  0  0  0  0  0  0
    9.8085   -0.4709    0.0000 O   0  0  0  0  0  0  0  0  0  0  0  0
  1  2  1  0
M  END
>  <attachment_idx>  (27) 
0

>  <count>  (27) 
75

$$$$

     RDKit          2D

  2  1  0  0  0  0  0  0  0  0999 V2000
   -4.4714   -2.2557    0.0000 N   0  0  0  0  0  0  0  0  0  0  0  0
   -5.9714   -2.2498    0.0000 C   0  0  0  0  0  0  0  0  0  0  0  0
  2  1  1  0
M  END
>  <attachment_idx>  (28) 
0

>  <count>  (28) 
74

$$$$

     RDKit          2D

  6  6  0  0  0  0  0  0  0  0999 V2000
   -7.7473   -1.3182    0.0000 N   0  0  0  0  0  0  0  0  0  0  0  0
   -7.8900    0.1750    0.0000 C   0  0  0  0  0  0  0  0  0  0  0  0
   -8.9690   -2.1884    0.0000 C   0  0  0  0  0  0  0  0  0  0  0  0
   -9.2545    0.7980    0.0000 C   0  0  0  0  0  0  0  0  0  0  0  0
  -10.3335   -1.5654    0.0000 C   0  0  0  0  0  0  0  0  0  0  0  0
  -10.4763   -0.0722    0.0000 C   0  0  0  0  0  0  0  0  0  0  0  0
  1  2  1  0
  3  1  1  0
  2  4  1  0
  5  3  1  0
  4  6  1  0
  6  5  1  0
M  END
>  <attachment_idx>  (29) 
0

>  <count>  (29) 
71

$$$$

     RDKit          2D

  8  8  0  0  0  0  0  0  0  0999 V2000
    4.1847   -1.3874    0.0000 C   0  0  0  0  0  0  0  0  0  0  0  0
    4.3429   -2.8790    0.0000 C   0  0  0  0  0  0  0  0  0  0  0  0
    5.3975   -0.5046    0.0000 C   0  0  0  0  0  0  0  0  0  0  0  0
    5.7138   -3.4879    0.0000 C   0  0  0  0  0  0  0  0  0  0  0  0
    6.7683   -1.1135    0.0000 C   0  0  0  0  0  0  0  0  0  0  0  0
    5.2393    0.9870    0.0000 F   0  0  0  0  0  0  0  0  0  0  0  0
    6.9265   -2.6051    0.0000 C   0  0  0  0  0  0  0  0  0  0  0  0
    7.9811   -0.2307    0.0000 Cl  0  0  0  0  0  0  0  0  0  0  0  0
  1  2  1  0
  3  1  2  0
  2  4  2  0
  5  3  1  0
  3  6  1  0
  4  7  1  0
  7  5  2  0
  5  8  1  0
M  END
>  <attachment_idx>  (30) 
0

>  <count>  (30) 
67

$$$$

     RDKit          2D

  5  5  0  0  0  0  0  0  0  0999 V2000
   16.7275    4.2597    0.0000 C   0  0  0  0  0  0  0  0  0  0  0  0
   15.2387    4.4430    0.0000 N   0  0  0  0  0  0  0  0  0  0  0  0
   17.3619    5.6189    0.0000 S   0  0  0  0  0  0  0  0  0  0  0  0
   14.9530    5.9156    0.0000 C   0  0  0  0  0  0  0  0  0  0  0  0
   16.2652    6.6423    0.0000 C   0  0  0  0  0  0  0  0  0  0  0  0
  1  2  2  0
  3  1  1  0
  2  4  1  0
  5  3  1  0
  4  5  2  0
M  END
>  <attachment_idx>  (31) 
0

>  <count>  (31) 
66

$$$$

     RDKit          2D

  5  5  0  0  0  0  0  0  0  0999 V2000
   -1.3099    3.1833    0.0000 C   0  0  0  0  0  0  0  0  0  0  0  0
   -2.7061    3.7316    0.0000 C   0  0  0  0  0  0  0  0  0  0  0  0
   -0.3571    4.3418    0.0000 C   0  0  0  0  0  0  0  0  0  0  0  0
   -2.6162    5.2289    0.0000 C   0  0  0  0  0  0  0  0  0  0  0  0
   -1.1644    5.6060    0.0000 O   0  0  0  0  0  0  0  0  0  0  0  0
  1  2  1  6
  3  1  1  0
  2  4  1  0
  5  3  1  0
  4  5  1  0
M  END
>  <attachment_idx>  (32) 
0

>  <count>  (32) 
66

$$$$

     RDKit          2D

  7  7  0  0  0  0  0  0  0  0999 V2000
    5.9453   -0.4077    0.0000 C   0  0  0  0  0  0  0  0  0  0  0  0
    6.8910   -1.5720    0.0000 C   0  0  0  0  0  0  0  0  0  0  0  0
    6.4809    0.9935    0.0000 C   0  0  0  0  0  0  0  0  0  0  0  0
    8.3722   -1.3353    0.0000 C   0  0  0  0  0  0  0  0  0  0  0  0
    7.9621    1.2302    0.0000 C   0  0  0  0  0  0  0  0  0  0  0  0
    8.9077    0.0658    0.0000 N   0  0  0  0  0  0  0  0  0  0  0  0
   10.3889    0.3026    0.0000 C   0  0  0  0  0  0  0  0  0  0  0  0
  1  2  1  0
  3  1  1  0
  2  4  1  0
  5  3  1  0
  4  6  1  0
  6  5  1  0
  6  7  1  0
M  END
>  <attachment_idx>  (33) 
0

>  <count>  (33) 
64

$$$$

     RDKit          2D

  5  5  0  0  0  0  0  0  0  0999 V2000
    7.9322   -0.6922    0.0000 N   0  0  0  0  0  0  0  0  0  0  0  0
    8.5557    0.6721    0.0000 C   0  0  0  0  0  0  0  0  0  0  0  0
    9.0370   -1.7068    0.0000 C   0  0  0  0  0  0  0  0  0  0  0  0
   10.0459    0.5007    0.0000 C   0  0  0  0  0  0  0  0  0  0  0  0
   10.3434   -0.9695    0.0000 C   0  0  0  0  0  0  0  0  0  0  0  0
  1  2  1  0
  3  1  1  0
  2  4  1  0
  5  3  1  0
  4  5  1  0
M  END
>  <attachment_idx>  (34) 
0

>  <count>  (34) 
62

$$$$

     RDKit          2D

  4  3  0  0  0  0  0  0  0  0999 V2000
   -8.1210    0.2470    0.0000 S   0  0  0  0  0  0  0  0  0  0  0  0
   -9.6111    0.0749    0.0000 C   0  0  0  0  0  0  0  0  0  0  0  0
   -7.9489   -1.2431    0.0000 O   0  0  0  0  0  0  0  0  0  0  0  0
   -8.2932    1.7371    0.0000 O   0  0  0  0  0  0  0  0  0  0  0  0
  2  1  1  0
  1  3  2  0
  1  4  2  0
M  END
>  <attachment_idx>  (35) 
0

>  <count>  (35) 
62

$$$$

     RDKit          2D

 11 12  0  0  0  0  0  0  0  0999 V2000
    7.7995   -0.3447    0.0000 C   0  0  0  0  0  0  0  0  0  0  0  0
    8.2408   -1.7783    0.0000 C   0  0  0  0  0  0  0  0  0  0  0  0
    8.8204    0.7543    0.0000 C   0  0  0  0  0  0  0  0  0  0  0  0
    9.7030   -2.1129    0.0000 C   0  0  0  0  0  0  0  0  0  0  0  0
    8.3791    2.1880    0.0000 C   0  0  0  0  0  0  0  0  0  0  0  0
   10.2826    0.4197    0.0000 C   0  0  0  0  0  0  0  0  0  0  0  0
   10.7239   -1.0139    0.0000 N   0  0  0  0  0  0  0  0  0  0  0  0
    9.4000    3.2869    0.0000 C   0  0  0  0  0  0  0  0  0  0  0  0
   11.3035    1.5187    0.0000 N   0  0  0  0  0  0  0  0  0  0  0  0
   10.8622    2.9523    0.0000 C   0  0  0  0  0  0  0  0  0  0  0  0
   11.8831    4.0513    0.0000 O   0  0  0  0  0  0  0  0  0  0  0  0
  1  2  1  0
  3  1  2  0
  2  4  2  0
  5  3  1  0
  3  6  1  0
  4  7  1  0
  8  5  1  0
  7  6  2  0
  6  9  1  0
 10  8  1  0
  9 10  1  0
 10 11  2  0
M  END
>  <attachment_idx>  (36) 
0

>  <count>  (36) 
62

$$$$

     RDKit          2D

  4  3  0  0  0  0  0  0  0  0999 V2000
    3.9217    2.7027    0.0000 C   0  0  0  0  0  0  0  0  0  0  0  0
    2.7725    1.7386    0.0000 C   0  0  0  0  0  0  0  0  0  0  0  0
    5.0708    3.6668    0.0000 C   0  0  0  0  0  0  0  0  0  0  0  0
    2.9576    3.8519    0.0000 O   0  0  0  0  0  0  0  0  0  0  0  0
  1  2  1  0
  1  3  1  0
  1  4  1  0
M  END
>  <attachment_idx>  (37) 
0

>  <count>  (37) 
57

$$$$

     RDKit          2D

  8  7  0  0  0  0  0  0  0  0999 V2000
    5.5827   -0.0636    0.0000 C   0  0  0  0  0  0  0  0  0  0  0  0
    6.3001    1.2538    0.0000 C   0  0  0  0  0  0  0  0  0  0  0  0
    4.9828    1.9711    0.0000 C   0  0  0  0  0  0  0  0  0  0  0  0
    7.6175    0.5364    0.0000 C   0  0  0  0  0  0  0  0  0  0  0  0
    7.0175    2.5711    0.0000 C   0  0  0  0  0  0  0  0  0  0  0  0
    7.7349    3.8884    0.0000 F   0  0  0  0  0  0  0  0  0  0  0  0
    8.3348    1.8537    0.0000 F   0  0  0  0  0  0  0  0  0  0  0  0
    5.7002    3.2885    0.0000 F   0  0  0  0  0  0  0  0  0  0  0  0
  1  2  1  0
  2  3  1  0
  2  4  1  0
  2  5  1  0
  5  6  1  0
  5  7  1  0
  5  8  1  0
M  END
>  <attachment_idx>  (38) 
0

>  <count>  (38) 
57

$$$$

     RDKit          2D

 10 11  0  0  0  0  0  0  0  0999 V2000
   -4.4721   -0.0884    0.0000 C   0  0  0  0  0  0  0  0  0  0  0  0
   -5.8564   -0.6660    0.0000 C   0  0  0  0  0  0  0  0  0  0  0  0
   -3.4950   -1.2266    0.0000 C   0  0  0  0  0  0  0  0  0  0  0  0
   -5.7350   -2.1610    0.0000 N   0  0  0  0  0  0  0  0  0  0  0  0
   -1.9954   -1.2620    0.0000 C   0  0  0  0  0  0  0  0  0  0  0  0
   -4.2755   -2.5075    0.0000 C   0  0  0  0  0  0  0  0  0  0  0  0
   -6.8731   -3.1381    0.0000 C   0  0  0  0  0  0  0  0  0  0  0  0
   -1.2764   -2.5784    0.0000 C   0  0  0  0  0  0  0  0  0  0  0  0
   -3.5564   -3.8239    0.0000 C   0  0  0  0  0  0  0  0  0  0  0  0
   -2.0569   -3.8594    0.0000 C   0  0  0  0  0  0  0  0  0  0  0  0
  1  2  2  0
  3  1  1  0
  2  4  1  0
  5  3  2  0
  3  6  1  0
  4  7  1  0
  4  6  1  0
  8  5  1  0
  6  9  2  0
 10  8  2  0
  9 10  1  0
M  END
>  <attachment_idx>  (39) 
0

>  <count>  (39) 
55

$$$$

     RDKit          2D

  4  3  0  0  0  0  0  0  0  0999 V2000
   -9.9178    0.0292    0.0000 C   0  0  0  0  0  0  0  0  0  0  0  0
  -10.6970    1.3110    0.0000 C   0  0  0  0  0  0  0  0  0  0  0  0
  -10.6383   -1.2864    0.0000 O   0  0  0  0  0  0  0  0  0  0  0  0
  -12.1966    1.2771    0.0000 C   0  0  0  0  0  0  0  0  0  0  0  0
  2  1  1  0
  1  3  2  0
  4  2  1  0
M  END
>  <attachment_idx>  (40) 
0

>  <count>  (40) 
54

$$$$

     RDKit          2D

  6  5  0  0  0  0  0  0  0  0999 V2000
   -7.6637    0.4092    0.0000 C   0  0  0  0  0  0  0  0  0  0  0  0
   -8.5356    1.6297    0.0000 C   0  0  0  0  0  0  0  0  0  0  0  0
  -10.0286    1.4848    0.0000 S   0  0  0  0  0  0  0  0  0  0  0  0
  -11.5216    1.3399    0.0000 C   0  0  0  0  0  0  0  0  0  0  0  0
   -9.8837   -0.0082    0.0000 O   0  0  0  0  0  0  0  0  0  0  0  0
  -10.1735    2.9778    0.0000 O   0  0  0  0  0  0  0  0  0  0  0  0
  2  1  1  0
  3  2  1  0
  4  3  1  0
  3  5  2  0
  3  6  2  0
M  END
>  <attachment_idx>  (41) 
0

>  <count>  (41) 
48

$$$$

     RDKit          2D

  5  4  0  0  0  0  0  0  0  0999 V2000
   -6.9027    0.8782    0.0000 C   0  0  0  0  0  0  0  0  0  0  0  0
   -8.0978   -0.0283    0.0000 C   0  0  0  0  0  0  0  0  0  0  0  0
   -7.1913   -1.2234    0.0000 C   0  0  0  0  0  0  0  0  0  0  0  0
   -9.0043    1.1667    0.0000 C   0  0  0  0  0  0  0  0  0  0  0  0
   -9.2929   -0.9349    0.0000 O   0  0  0  0  0  0  0  0  0  0  0  0
  2  1  1  0
  3  2  1  0
  2  4  1  0
  2  5  1  0
M  END
>  <attachment_idx>  (42) 
0

>  <count>  (42) 
48

$$$$

     RDKit          2D

  7  7  0  0  0  0  0  0  0  0999 V2000
   -2.2079    0.9236    0.0000 C   0  0  0  0  0  0  0  0  0  0  0  0
   -3.1365    2.1016    0.0000 C   0  0  0  0  0  0  0  0  0  0  0  0
   -2.7639   -0.4696    0.0000 C   0  0  0  0  0  0  0  0  0  0  0  0
   -4.6210    1.8865    0.0000 C   0  0  0  0  0  0  0  0  0  0  0  0
   -4.2483   -0.6848    0.0000 C   0  0  0  0  0  0  0  0  0  0  0  0
   -5.1769    0.4933    0.0000 C   0  0  0  0  0  0  0  0  0  0  0  0
   -4.8043   -2.0779    0.0000 C   0  0  0  0  0  0  0  0  0  0  0  0
  2  1  2  0
  1  3  1  0
  4  2  1  0
  3  5  2  0
  6  4  2  0
  7  5  1  0
  5  6  1  0
M  END
>  <attachment_idx>  (43) 
0

>  <count>  (43) 
46

$$$$

     RDKit          2D

  9  9  0  0  0  0  0  0  0  0999 V2000
    3.3343    2.5200    0.0000 C   0  0  0  0  0  0  0  0  0  0  0  0
    4.7854    2.8997    0.0000 C   0  0  0  0  0  0  0  0  0  0  0  0
    2.2798    3.5868    0.0000 C   0  0  0  0  0  0  0  0  0  0  0  0
    5.1821    4.3463    0.0000 C   0  0  0  0  0  0  0  0  0  0  0  0
    2.6765    5.0334    0.0000 C   0  0  0  0  0  0  0  0  0  0  0  0
    0.8287    3.2071    0.0000 F   0  0  0  0  0  0  0  0  0  0  0  0
    4.1277    5.4132    0.0000 C   0  0  0  0  0  0  0  0  0  0  0  0
    1.6221    6.1003    0.0000 Cl  0  0  0  0  0  0  0  0  0  0  0  0
    4.5244    6.8598    0.0000 Cl  0  0  0  0  0  0  0  0  0  0  0  0
  1  2  2  0
  3  1  1  0
  2  4  1  0
  5  3  2  0
  3  6  1  0
  4  7  2  0
  7  5  1  0
  5  8  1  0
  7  9  1  0
M  END
>  <attachment_idx>  (44) 
0

>  <count>  (44) 
45

$$$$

     RDKit          2D

 12 13  0  0  0  0  0  0  0  0999 V2000
    2.2458    1.8999    0.0000 C   0  0  0  0  0  0  0  0  0  0  0  0
    1.5643    3.2361    0.0000 C   0  0  0  0  0  0  0  0  0  0  0  0
    3.7438    1.8220    0.0000 C   0  0  0  0  0  0  0  0  0  0  0  0
    0.0663    3.3140    0.0000 C   0  0  0  0  0  0  0  0  0  0  0  0
    2.3807    4.4945    0.0000 C   0  0  0  0  0  0  0  0  0  0  0  0
    4.5602    3.0803    0.0000 C   0  0  0  0  0  0  0  0  0  0  0  0
   -0.6152    4.6503    0.0000 C   0  0  0  0  0  0  0  0  0  0  0  0
    3.8787    4.4166    0.0000 C   0  0  0  0  0  0  0  0  0  0  0  0
    1.6992    5.8307    0.0000 C   0  0  0  0  0  0  0  0  0  0  0  0
    0.2012    5.9086    0.0000 N   0  0  0  0  0  0  0  0  0  0  0  0
    2.5157    7.0890    0.0000 O   0  0  0  0  0  0  0  0  0  0  0  0
   -0.4803    7.2449    0.0000 C   0  0  0  0  0  0  0  0  0  0  0  0
  2  1  2  0
  1  3  1  0
  4  2  1  0
  5  2  1  0
  3  6  2  0
  7  4  2  0
  8  5  2  0
  5  9  1  0
  6  8  1  0
 10  7  1  0
  9 11  2  0
  9 10  1  0
 12 10  1  0
M  END
>  <attachment_idx>  (45) 
0

>  <count>  (45) 
45

$$$$

     RDKit          2D

  7  7  0  0  0  0  0  0  0  0999 V2000
   -0.9024   -2.8876    0.0000 C   0  0  0  0  0  0  0  0  0  0  0  0
   -0.9969   -1.3906    0.0000 C   0  0  0  0  0  0  0  0  0  0  0  0
   -2.1516   -3.7180    0.0000 C   0  0  0  0  0  0  0  0  0  0  0  0
   -2.3406   -0.7239    0.0000 C   0  0  0  0  0  0  0  0  0  0  0  0
   -3.4953   -3.0513    0.0000 C   0  0  0  0  0  0  0  0  0  0  0  0
   -3.5898   -1.5543    0.0000 C   0  0  0  0  0  0  0  0  0  0  0  0
   -4.9335   -0.8876    0.0000 Cl  0  0  0  0  0  0  0  0  0  0  0  0
  2  1  2  0
  1  3  1  0
  4  2  1  0
  3  5  2  0
  6  4  2  0
  5  6  1  0
  7  6  1  0
M  END
>  <attachment_idx>  (46) 
0

>  <count>  (46) 
44

$$$$

     RDKit          2D

 11 12  0  0  0  0  0  0  0  0999 V2000
   12.5191   -0.6229    0.0000 C   0  0  0  0  0  0  0  0  0  0  0  0
   13.3881    0.5997    0.0000 C   0  0  0  0  0  0  0  0  0  0  0  0
   13.4133   -1.8272    0.0000 C   0  0  0  0  0  0  0  0  0  0  0  0
   14.8194    0.1510    0.0000 N   0  0  0  0  0  0  0  0  0  0  0  0
   14.8350   -1.3489    0.0000 N   0  0  0  0  0  0  0  0  0  0  0  0
   16.0576   -2.2179    0.0000 S   0  0  0  0  0  0  0  0  0  0  0  0
   16.9266   -0.9953    0.0000 O   0  0  0  0  0  0  0  0  0  0  0  0
   15.1886   -3.4405    0.0000 O   0  0  0  0  0  0  0  0  0  0  0  0
   17.2802   -3.0869    0.0000 C   0  0  0  0  0  0  0  0  0  0  0  0
   18.7736   -3.2282    0.0000 C   0  0  0  0  0  0  0  0  0  0  0  0
   17.9046   -4.4508    0.0000 C   0  0  0  0  0  0  0  0  0  0  0  0
  1  2  1  0
  3  1  2  0
  2  4  2  0
  5  3  1  0
  4  5  1  0
  5  6  1  0
  6  7  2  0
  6  8  2  0
  6  9  1  0
  9 10  1  0
 11  9  1  0
 10 11  1  0
M  END
>  <attachment_idx>  (47) 
0

>  <count>  (47) 
41

$$$$

     RDKit          2D

  6  6  0  0  0  0  0  0  0  0999 V2000
   -7.5602   -0.6499    0.0000 C   0  0  0  0  0  0  0  0  0  0  0  0
   -8.9766   -1.1439    0.0000 C   0  0  0  0  0  0  0  0  0  0  0  0
   -7.5924    0.8498    0.0000 N   0  0  0  0  0  0  0  0  0  0  0  0
   -9.8840    0.0505    0.0000 C   0  0  0  0  0  0  0  0  0  0  0  0
   -6.3980    1.7573    0.0000 C   0  0  0  0  0  0  0  0  0  0  0  0
   -9.0286    1.2826    0.0000 C   0  0  0  0  0  0  0  0  0  0  0  0
  1  2  1  1
  1  3  1  0
  4  2  1  0
  5  3  1  0
  3  6  1  0
  6  4  1  0
M  END
>  <attachment_idx>  (48) 
0

>  <count>  (48) 
40

$$$$

     RDKit          2D

  4  4  0  0  0  0  0  0  0  0999 V2000
   -3.6603    2.3637    0.0000 C   0  0  0  0  0  0  0  0  0  0  0  0
   -4.1811    3.7704    0.0000 C   0  0  0  0  0  0  0  0  0  0  0  0
   -5.0670    1.8429    0.0000 C   0  0  0  0  0  0  0  0  0  0  0  0
   -5.5878    3.2496    0.0000 O   0  0  0  0  0  0  0  0  0  0  0  0
  1  2  1  0
  3  1  1  0
  2  4  1  0
  4  3  1  0
M  END
>  <attachment_idx>  (49) 
0

>  <count>  (49) 
39

$$$$

     RDKit          2D

 10 11  0  0  0  0  0  0  0  0999 V2000
    0.5458    0.0264    0.0000 C   0  0  0  0  0  0  0  0  0  0  0  0
    0.0415   -1.3863    0.0000 N   0  0  0  0  0  0  0  0  0  0  0  0
    2.0214    0.2960    0.0000 C   0  0  0  0  0  0  0  0  0  0  0  0
    1.0128   -2.5294    0.0000 C   0  0  0  0  0  0  0  0  0  0  0  0
    2.5257    1.7087    0.0000 C   0  0  0  0  0  0  0  0  0  0  0  0
    2.9927   -0.8471    0.0000 C   0  0  0  0  0  0  0  0  0  0  0  0
    2.4884   -2.2598    0.0000 N   0  0  0  0  0  0  0  0  0  0  0  0
    4.0012    1.9783    0.0000 N   0  0  0  0  0  0  0  0  0  0  0  0
    4.4682   -0.5775    0.0000 C   0  0  0  0  0  0  0  0  0  0  0  0
    4.9725    0.8352    0.0000 C   0  0  0  0  0  0  0  0  0  0  0  0
  1  2  1  0
  3  1  2  0
  2  4  2  0
  5  3  1  0
  3  6  1  0
  4  7  1  0
  8  5  2  0
  7  6  2  0
  6  9  1  0
 10  8  1  0
  9 10  2  0
M  END
>  <attachment_idx>  (50) 
0

>  <count>  (50) 
38

$$$$
