
     RDKit          2D

  2  1  0  0  0  0  0  0  0  0999 V2000
    0.7500   -0.0000    0.0000 O   0  0  0  0  0  0  0  0  0  0  0  0
   -0.7500    0.0000    0.0000 C   0  0  0  0  0  0  0  0  0  0  0  0
  2  1  1  0
M  END
>  <attachment_idx>  (1) 
0

>  <count>  (1) 
1595

$$$$

     RDKit          2D

  4  3  0  0  0  0  0  0  0  0999 V2000
    0.5994   -0.4508    0.0000 C   0  0  0  0  0  0  0  0  0  0  0  0
   -0.5994    0.4508    0.0000 C   0  0  0  0  0  0  0  0  0  0  0  0
    1.9796    0.1365    0.0000 O   0  0  0  0  0  0  0  0  0  0  0  0
   -1.9796   -0.1365    0.0000 C   0  0  0  0  0  0  0  0  0  0  0  0
  2  1  1  0
  1  3  2  0
  4  2  2  0
M  END
>  <attachment_idx>  (2) 
0

>  <count>  (2) 
1099

$$$$

     RDKit          2D

  6  6  0  0  0  0  0  0  0  0999 V2000
    1.5000    0.0000    0.0000 C   0  0  0  0  0  0  0  0  0  0  0  0
    0.7500   -1.2990    0.0000 C   0  0  0  0  0  0  0  0  0  0  0  0
    0.7500    1.2990    0.0000 C   0  0  0  0  0  0  0  0  0  0  0  0
   -0.7500   -1.2990    0.0000 C   0  0  0  0  0  0  0  0  0  0  0  0
   -0.7500    1.2990    0.0000 C   0  0  0  0  0  0  0  0  0  0  0  0
   -1.5000    0.0000    0.0000 C   0  0  0  0  0  0  0  0  0  0  0  0
  2  1  2  0
  1  3  1  0
  4  2  1  0
  3  5  2  0
  6  4  2  0
  5  6  1  0
M  END
>  <attachment_idx>  (3) 
0

>  <count>  (3) 
721

$$$$

     RDKit          2D

  3  2  0  0  0  0  0  0  0  0999 V2000
    0.0000    0.5000    0.0000 N   0  0  0  0  0  0  0  0  0  0  0  0
   -1.2990   -0.2500    0.0000 C   0  0  0  0  0  0  0  0  0  0  0  0
    1.2990   -0.2500    0.0000 C   0  0  0  0  0  0  0  0  0  0  0  0
  2  1  1  0
  1  3  1  0
M  END
>  <attachment_idx>  (4) 
0

>  <count>  (4) 
693

$$$$

     RDKit          2D

  8  8  0  0  0  0  0  0  0  0999 V2000
   -1.9486   -0.7500    0.0000 C   0  0  0  0  0  0  0  0  0  0  0  0
   -1.9486    0.7500    0.0000 C   0  0  0  0  0  0  0  0  0  0  0  0
   -0.6495   -1.5000    0.0000 C   0  0  0  0  0  0  0  0  0  0  0  0
   -0.6495    1.5000    0.0000 C   0  0  0  0  0  0  0  0  0  0  0  0
    0.6495   -0.7500    0.0000 C   0  0  0  0  0  0  0  0  0  0  0  0
    0.6495    0.7500    0.0000 C   0  0  0  0  0  0  0  0  0  0  0  0
    1.9486   -1.5000    0.0000 Cl  0  0  0  0  0  0  0  0  0  0  0  0
    1.9486    1.5000    0.0000 F   0  0  0  0  0  0  0  0  0  0  0  0
  1  2  2  0
  3  1  1  0
  2  4  1  0
  5  3  2  0
  4  6  2  0
  6  5  1  0
  5  7  1  0
  6  8  1  0
M  END
>  <attachment_idx>  (5) 
0

>  <count>  (5) 
630

$$$$

     RDKit          2D

  2  1  0  0  0  0  0  0  0  0999 V2000
   -0.7500    0.0000    0.0000 C   0  0  0  0  0  0  0  0  0  0  0  0
    0.7500   -0.0000    0.0000 C   0  0  0  0  0  0  0  0  0  0  0  0
  2  1  1  0
M  END
>  <attachment_idx>  (6) 
0

>  <count>  (6) 
483

$$$$

     RDKit          2D

  5  4  0  0  0  0  0  0  0  0999 V2000
   -1.2990   -0.7500    0.0000 C   0  0  0  0  0  0  0  0  0  0  0  0
    0.0000   -0.0000    0.0000 C   0  0  0  0  0  0  0  0  0  0  0  0
    1.2990    0.7500    0.0000 C   0  0  0  0  0  0  0  0  0  0  0  0
    0.7500   -1.2990    0.0000 C   0  0  0  0  0  0  0  0  0  0  0  0
   -0.7500    1.2990    0.0000 C   0  0  0  0  0  0  0  0  0  0  0  0
  2  1  1  0
  3  2  1  0
  2  4  1  0
  2  5  1  0
M  END
>  <attachment_idx>  (7) 
0

>  <count>  (7) 
472

$$$$

     RDKit          2D

  7  7  0  0  0  0  0  0  0  0999 V2000
    1.9286   -0.0000    0.0000 N   0  0  0  0  0  0  0  0  0  0  0  0
    1.1786   -1.2990    0.0000 C   0  0  0  0  0  0  0  0  0  0  0  0
    1.1786    1.2990    0.0000 C   0  0  0  0  0  0  0  0  0  0  0  0
   -0.3214   -1.2990    0.0000 C   0  0  0  0  0  0  0  0  0  0  0  0
   -0.3214    1.2990    0.0000 C   0  0  0  0  0  0  0  0  0  0  0  0
   -1.0714    0.0000    0.0000 N   0  0  0  0  0  0  0  0  0  0  0  0
   -2.5714    0.0000    0.0000 C   0  0  0  0  0  0  0  0  0  0  0  0
  2  1  1  0
  1  3  1  0
  4  2  1  0
  3  5  1  0
  6  4  1  0
  5  6  1  0
  7  6  1  0
M  END
>  <attachment_idx>  (8) 
0

>  <count>  (8) 
380

$$$$

     RDKit          2D

  7  7  0  0  0  0  0  0  0  0999 V2000
   -1.1786   -1.2990    0.0000 C   0  0  0  0  0  0  0  0  0  0  0  0
   -1.9286    0.0000    0.0000 C   0  0  0  0  0  0  0  0  0  0  0  0
    0.3214   -1.2990    0.0000 C   0  0  0  0  0  0  0  0  0  0  0  0
   -1.1786    1.2990    0.0000 C   0  0  0  0  0  0  0  0  0  0  0  0
    1.0714    0.0000    0.0000 C   0  0  0  0  0  0  0  0  0  0  0  0
    0.3214    1.2990    0.0000 C   0  0  0  0  0  0  0  0  0  0  0  0
    2.5714    0.0000    0.0000 Br  0  0  0  0  0  0  0  0  0  0  0  0
  1  2  2  0
  3  1  1  0
  2  4  1  0
  5  3  2  0
  4  6  2  0
  6  5  1  0
  5  7  1  0
M  END
>  <attachment_idx>  (9) 
0

>  <count>  (9) 
342

$$$$

     RDKit          2D

  4  3  0  0  0  0  0  0  0  0999 V2000
   -0.0000    0.0000    0.0000 C   0  0  0  0  0  0  0  0  0  0  0  0
    1.2990    0.7500    0.0000 F   0  0  0  0  0  0  0  0  0  0  0  0
   -1.2990    0.7500    0.0000 F   0  0  0  0  0  0  0  0  0  0  0  0
   -0.0000   -1.5000    0.0000 F   0  0  0  0  0  0  0  0  0  0  0  0
  1  2  1  0
  1  3  1  0
  1  4  1  0
M  END
>  <attachment_idx>  (10) 
0

>  <count>  (10) 
331

$$$$

     RDKit          2D

  7  7  0  0  0  0  0  0  0  0999 V2000
   -1.1786   -1.2990    0.0000 C   0  0  0  0  0  0  0  0  0  0  0  0
   -1.9286    0.0000    0.0000 C   0  0  0  0  0  0  0  0  0  0  0  0
    0.3214   -1.2990    0.0000 C   0  0  0  0  0  0  0  0  0  0  0  0
   -1.1786    1.2990    0.0000 C   0  0  0  0  0  0  0  0  0  0  0  0
    1.0714    0.0000    0.0000 C   0  0  0  0  0  0  0  0  0  0  0  0
    0.3214    1.2990    0.0000 C   0  0  0  0  0  0  0  0  0  0  0  0
    2.5714    0.0000    0.0000 F   0  0  0  0  0  0  0  0  0  0  0  0
  2  1  2  0
  1  3  1  0
  4  2  1  0
  3  5  2  0
  6  4  2  0
  7  5  1  0
  5  6  1  0
M  END
>  <attachment_idx>  (11) 
0

>  <count>  (11) 
317

$$$$

     RDKit          2D

  3  2  0  0  0  0  0  0  0  0999 V2000
    0.0000    0.5000    0.0000 C   0  0  0  0  0  0  0  0  0  0  0  0
   -1.2990   -0.2500    0.0000 C   0  0  0  0  0  0  0  0  0  0  0  0
    1.2990   -0.2500    0.0000 C   0  0  0  0  0  0  0  0  0  0  0  0
  2  1  1  0
  1  3  1  0
M  END
>  <attachment_idx>  (12) 
0

>  <count>  (12) 
296

$$$$

     RDKit          2D

  6  6  0  0  0  0  0  0  0  0999 V2000
    1.5000    0.0000    0.0000 N   0  0  0  0  0  0  0  0  0  0  0  0
    0.7500   -1.2990    0.0000 C   0  0  0  0  0  0  0  0  0  0  0  0
    0.7500    1.2990    0.0000 C   0  0  0  0  0  0  0  0  0  0  0  0
   -0.7500   -1.2990    0.0000 C   0  0  0  0  0  0  0  0  0  0  0  0
   -0.7500    1.2990    0.0000 C   0  0  0  0  0  0  0  0  0  0  0  0
   -1.5000    0.0000    0.0000 O   0  0  0  0  0  0  0  0  0  0  0  0
  1  2  1  0
  3  1  1  0
  2  4  1  0
  5  3  1  0
  4  6  1  0
  6  5  1  0
M  END
>  <attachment_idx>  (13) 
0

>  <count>  (13) 
287

$$$$

     RDKit          2D

  8  8  0  0  0  0  0  0  0  0999 V2000
    1.2990   -1.1250    0.0000 C   0  0  0  0  0  0  0  0  0  0  0  0
   -0.0000   -1.8750    0.0000 C   0  0  0  0  0  0  0  0  0  0  0  0
    1.2990    0.3750    0.0000 C   0  0  0  0  0  0  0  0  0  0  0  0
   -1.2990   -1.1250    0.0000 C   0  0  0  0  0  0  0  0  0  0  0  0
    2.5981    1.1250    0.0000 C   0  0  0  0  0  0  0  0  0  0  0  0
    0.0000    1.1250    0.0000 N   0  0  0  0  0  0  0  0  0  0  0  0
   -1.2990    0.3750    0.0000 C   0  0  0  0  0  0  0  0  0  0  0  0
   -2.5981    1.1250    0.0000 F   0  0  0  0  0  0  0  0  0  0  0  0
  2  1  2  0
  1  3  1  0
  4  2  1  0
  5  3  1  0
  3  6  2  0
  7  4  2  0
  6  7  1  0
  7  8  1  0
M  END
>  <attachment_idx>  (14) 
0

>  <count>  (14) 
195

$$$$

     RDKit          2D

  7  7  0  0  0  0  0  0  0  0999 V2000
    1.9286   -0.0000    0.0000 C   0  0  0  0  0  0  0  0  0  0  0  0
    1.1786   -1.2990    0.0000 C   0  0  0  0  0  0  0  0  0  0  0  0
    1.1786    1.2990    0.0000 C   0  0  0  0  0  0  0  0  0  0  0  0
   -0.3214   -1.2990    0.0000 C   0  0  0  0  0  0  0  0  0  0  0  0
   -0.3214    1.2990    0.0000 C   0  0  0  0  0  0  0  0  0  0  0  0
   -1.0714    0.0000    0.0000 C   0  0  0  0  0  0  0  0  0  0  0  0
   -2.5714    0.0000    0.0000 F   0  0  0  0  0  0  0  0  0  0  0  0
  2  1  2  0
  1  3  1  0
  4  2  1  0
  3  5  2  0
  6  4  2  0
  5  6  1  0
  7  6  1  0
M  END
>  <attachment_idx>  (15) 
0

>  <count>  (15) 
142

$$$$

     RDKit          2D

  3  2  0  0  0  0  0  0  0  0999 V2000
   -0.0000   -0.5000    0.0000 C   0  0  0  0  0  0  0  0  0  0  0  0
    1.2990    0.2500    0.0000 N   0  0  0  0  0  0  0  0  0  0  0  0
   -1.2990    0.2500    0.0000 O   0  0  0  0  0  0  0  0  0  0  0  0
  2  1  1  0
  1  3  2  0
M  END
>  <attachment_idx>  (16) 
0

>  <count>  (16) 
135

$$$$

     RDKit          2D

  3  2  0  0  0  0  0  0  0  0999 V2000
   -0.0000   -0.5000    0.0000 C   0  0  0  0  0  0  0  0  0  0  0  0
    1.2990    0.2500    0.0000 F   0  0  0  0  0  0  0  0  0  0  0  0
   -1.2990    0.2500    0.0000 F   0  0  0  0  0  0  0  0  0  0  0  0
  1  2  1  0
  1  3  1  0
M  END
>  <attachment_idx>  (17) 
0

>  <count>  (17) 
129

$$$$

     RDKit          2D

  3  2  0  0  0  0  0  0  0  0999 V2000
    0.0000    0.5000    0.0000 C   0  0  0  0  0  0  0  0  0  0  0  0
   -1.2990   -0.2500    0.0000 C   0  0  0  0  0  0  0  0  0  0  0  0
    1.2990   -0.2500    0.0000 O   0  0  0  0  0  0  0  0  0  0  0  0
  2  1  1  0
  1  3  2  0
M  END
>  <attachment_idx>  (18) 
0

>  <count>  (18) 
126

$$$$

     RDKit          2D

  3  2  0  0  0  0  0  0  0  0999 V2000
   -1.2990   -0.2500    0.0000 C   0  0  0  0  0  0  0  0  0  0  0  0
    0.0000    0.5000    0.0000 C   0  0  0  0  0  0  0  0  0  0  0  0
    1.2990   -0.2500    0.0000 O   0  0  0  0  0  0  0  0  0  0  0  0
  2  1  1  0
  3  2  1  0
M  END
>  <attachment_idx>  (19) 
0

>  <count>  (19) 
108

$$$$

     RDKit          2D

  6  6  0  0  0  0  0  0  0  0999 V2000
    1.5000    0.0000    0.0000 C   0  0  0  0  0  0  0  0  0  0  0  0
    0.7500   -1.2990    0.0000 C   0  0  0  0  0  0  0  0  0  0  0  0
    0.7500    1.2990    0.0000 N   0  0  0  0  0  0  0  0  0  0  0  0
   -0.7500   -1.2990    0.0000 C   0  0  0  0  0  0  0  0  0  0  0  0
   -0.7500    1.2990    0.0000 C   0  0  0  0  0  0  0  0  0  0  0  0
   -1.5000    0.0000    0.0000 C   0  0  0  0  0  0  0  0  0  0  0  0
  1  2  1  0
  3  1  2  0
  2  4  2  0
  5  3  1  0
  4  6  1  0
  6  5  2  0
M  END
>  <attachment_idx>  (20) 
0

>  <count>  (20) 
107

$$$$

     RDKit          2D

  8  8  0  0  0  0  0  0  0  0999 V2000
    1.2990   -1.1250    0.0000 C   0  0  0  0  0  0  0  0  0  0  0  0
   -0.0000   -1.8750    0.0000 C   0  0  0  0  0  0  0  0  0  0  0  0
    1.2990    0.3750    0.0000 C   0  0  0  0  0  0  0  0  0  0  0  0
   -1.2990   -1.1250    0.0000 C   0  0  0  0  0  0  0  0  0  0  0  0
    0.0000    1.1250    0.0000 C   0  0  0  0  0  0  0  0  0  0  0  0
    2.5981    1.1250    0.0000 F   0  0  0  0  0  0  0  0  0  0  0  0
   -1.2990    0.3750    0.0000 C   0  0  0  0  0  0  0  0  0  0  0  0
   -2.5981    1.1250    0.0000 Br  0  0  0  0  0  0  0  0  0  0  0  0
  1  2  2  0
  3  1  1  0
  2  4  1  0
  5  3  2  0
  3  6  1  0
  4  7  2  0
  7  5  1  0
  7  8  1  0
M  END
>  <attachment_idx>  (21) 
0

>  <count>  (21) 
97

$$$$

     RDKit          2D

  6  6  0  0  0  0  0  0  0  0999 V2000
    1.5000    0.0000    0.0000 C   0  0  0  0  0  0  0  0  0  0  0  0
    0.7500   -1.2990    0.0000 C   0  0  0  0  0  0  0  0  0  0  0  0
    0.7500    1.2990    0.0000 C   0  0  0  0  0  0  0  0  0  0  0  0
   -0.7500   -1.2990    0.0000 C   0  0  0  0  0  0  0  0  0  0  0  0
   -0.7500    1.2990    0.0000 N   0  0  0  0  0  0  0  0  0  0  0  0
   -1.5000    0.0000    0.0000 C   0  0  0  0  0  0  0  0  0  0  0  0
  1  2  2  0
  3  1  1  0
  2  4  1  0
  5  3  2  0
  4  6  2  0
  6  5  1  0
M  END
>  <attachment_idx>  (22) 
0

>  <count>  (22) 
95

$$$$

     RDKit          2D

  4  3  0  0  0  0  0  0  0  0999 V2000
    0.0000    0.0000    0.0000 C   0  0  0  0  0  0  0  0  0  0  0  0
   -1.2990   -0.7500    0.0000 C   0  0  0  0  0  0  0  0  0  0  0  0
    1.2990   -0.7500    0.0000 C   0  0  0  0  0  0  0  0  0  0  0  0
    0.0000    1.5000    0.0000 C   0  0  0  0  0  0  0  0  0  0  0  0
  1  2  1  0
  1  3  1  0
  1  4  1  0
M  END
>  <attachment_idx>  (23) 
0

>  <count>  (23) 
94

$$$$

     RDKit          2D

  3  3  0  0  0  0  0  0  0  0999 V2000
    0.8660   -0.0000    0.0000 C   0  0  0  0  0  0  0  0  0  0  0  0
   -0.4330    0.7500    0.0000 C   0  0  0  0  0  0  0  0  0  0  0  0
   -0.4330   -0.7500    0.0000 C   0  0  0  0  0  0  0  0  0  0  0  0
  1  2  1  0
  3  1  1  0
  2  3  1  0
M  END
>  <attachment_idx>  (24) 
0

>  <count>  (24) 
91

$$$$

     RDKit          2D

  7  7  0  0  0  0  0  0  0  0999 V2000
   -1.1786   -1.2990    0.0000 C   0  0  0  0  0  0  0  0  0  0  0  0
   -1.9286    0.0000    0.0000 C   0  0  0  0  0  0  0  0  0  0  0  0
    0.3214   -1.2990    0.0000 C   0  0  0  0  0  0  0  0  0  0  0  0
   -1.1786    1.2990    0.0000 C   0  0  0  0  0  0  0  0  0  0  0  0
    1.0714    0.0000    0.0000 C   0  0  0  0  0  0  0  0  0  0  0  0
    0.3214    1.2990    0.0000 C   0  0  0  0  0  0  0  0  0  0  0  0
    2.5714    0.0000    0.0000 Cl  0  0  0  0  0  0  0  0  0  0  0  0
  2  1  2  0
  1  3  1  0
  4  2  1  0
  3  5  2  0
  6  4  2  0
  7  5  1  0
  5  6  1  0
M  END
>  <attachment_idx>  (25) 
0

>  <count>  (25) 
87

$$$$

     RDKit          2D

  8  8  0  0  0  0  0  0  0  0999 V2000
   -1.6875   -1.2990    0.0000 C   0  0  0  0  0  0  0  0  0  0  0  0
   -2.4375    0.0000    0.0000 C   0  0  0  0  0  0  0  0  0  0  0  0
   -0.1875   -1.2990    0.0000 C   0  0  0  0  0  0  0  0  0  0  0  0
   -1.6875    1.2990    0.0000 C   0  0  0  0  0  0  0  0  0  0  0  0
    0.5625   -0.0000    0.0000 C   0  0  0  0  0  0  0  0  0  0  0  0
   -0.1875    1.2990    0.0000 C   0  0  0  0  0  0  0  0  0  0  0  0
    2.0625   -0.0000    0.0000 C   0  0  0  0  0  0  0  0  0  0  0  0
    3.5625    0.0000    0.0000 C   0  0  0  0  0  0  0  0  0  0  0  0
  2  1  2  0
  1  3  1  0
  4  2  1  0
  3  5  2  0
  6  4  2  0
  7  5  1  0
  5  6  1  0
  8  7  3  0
M  END
>  <attachment_idx>  (26) 
0

>  <count>  (26) 
87

$$$$

     RDKit          2D

  2  1  0  0  0  0  0  0  0  0999 V2000
   -0.7500    0.0000    0.0000 C   0  0  0  0  0  0  0  0  0  0  0  0
    0.7500   -0.0000    0.0000 O   0  0  0  0  0  0  0  0  0  0  0  0
  1  2  1  0
M  END
>  <attachment_idx>  (27) 
0

>  <count>  (27) 
75

$$$$

     RDKit          2D

  2  1  0  0  0  0  0  0  0  0999 V2000
    0.7500   -0.0000    0.0000 N   0  0  0  0  0  0  0  0  0  0  0  0
   -0.7500    0.0000    0.0000 C   0  0  0  0  0  0  0  0  0  0  0  0
  2  1  1  0
M  END
>  <attachment_idx>  (28) 
0

>  <count>  (28) 
74

$$$$

     RDKit          2D

 10 10  0  0  0  0  0  0  0  0999 V2000
   -0.6000   -1.2990    0.0000 C   0  0  0  0  0  0  0  0  0  0  0  0
   -2.1000   -1.2990    0.0000 C   0  0  0  0  0  0  0  0  0  0  0  0
    0.1500   -0.0000    0.0000 C   0  0  0  0  0  0  0  0  0  0  0  0
   -2.8500    0.0000    0.0000 C   0  0  0  0  0  0  0  0  0  0  0  0
   -0.6000    1.2990    0.0000 C   0  0  0  0  0  0  0  0  0  0  0  0
    1.6500   -0.0000    0.0000 P   0  0  0  0  0  0  0  0  0  0  0  0
   -2.1000    1.2990    0.0000 C   0  0  0  0  0  0  0  0  0  0  0  0
    3.1500    0.0000    0.0000 O   0  0  0  0  0  0  0  0  0  0  0  0
    1.6500    1.5000    0.0000 C   0  0  0  0  0  0  0  0  0  0  0  0
    1.6500   -1.5000    0.0000 C   0  0  0  0  0  0  0  0  0  0  0  0
  1  2  1  0
  3  1  2  0
  2  4  2  0
  5  3  1  0
  3  6  1  0
  4  7  1  0
  7  5  2  0
  6  8  2  0
  6  9  1  0
  6 10  1  0
M  END
>  <attachment_idx>  (29) 
0

>  <count>  (29) 
72

$$$$

     RDKit          2D

  6  6  0  0  0  0  0  0  0  0999 V2000
    1.5000    0.0000    0.0000 N   0  0  0  0  0  0  0  0  0  0  0  0
    0.7500   -1.2990    0.0000 C   0  0  0  0  0  0  0  0  0  0  0  0
    0.7500    1.2990    0.0000 C   0  0  0  0  0  0  0  0  0  0  0  0
   -0.7500   -1.2990    0.0000 C   0  0  0  0  0  0  0  0  0  0  0  0
   -0.7500    1.2990    0.0000 C   0  0  0  0  0  0  0  0  0  0  0  0
   -1.5000    0.0000    0.0000 C   0  0  0  0  0  0  0  0  0  0  0  0
  1  2  1  0
  3  1  1  0
  2  4  1  0
  5  3  1  0
  4  6  1  0
  6  5  1  0
M  END
>  <attachment_idx>  (30) 
0

>  <count>  (30) 
71

$$$$

     RDKit          2D

  8  8  0  0  0  0  0  0  0  0999 V2000
   -0.6495   -1.5000    0.0000 C   0  0  0  0  0  0  0  0  0  0  0  0
   -1.9486   -0.7500    0.0000 C   0  0  0  0  0  0  0  0  0  0  0  0
    0.6495   -0.7500    0.0000 C   0  0  0  0  0  0  0  0  0  0  0  0
   -1.9486    0.7500    0.0000 C   0  0  0  0  0  0  0  0  0  0  0  0
    0.6495    0.7500    0.0000 C   0  0  0  0  0  0  0  0  0  0  0  0
    1.9486   -1.5000    0.0000 F   0  0  0  0  0  0  0  0  0  0  0  0
   -0.6495    1.5000    0.0000 C   0  0  0  0  0  0  0  0  0  0  0  0
    1.9486    1.5000    0.0000 Cl  0  0  0  0  0  0  0  0  0  0  0  0
  1  2  1  0
  3  1  2  0
  2  4  2  0
  5  3  1  0
  3  6  1  0
  4  7  1  0
  7  5  2  0
  5  8  1  0
M  END
>  <attachment_idx>  (31) 
0

>  <count>  (31) 
67

$$$$

     RDKit          2D

  5  5  0  0  0  0  0  0  0  0999 V2000
    1.2760   -0.0000    0.0000 C   0  0  0  0  0  0  0  0  0  0  0  0
    0.3943    1.2135    0.0000 N   0  0  0  0  0  0  0  0  0  0  0  0
    0.3943   -1.2135    0.0000 S   0  0  0  0  0  0  0  0  0  0  0  0
   -1.0323    0.7500    0.0000 C   0  0  0  0  0  0  0  0  0  0  0  0
   -1.0323   -0.7500    0.0000 C   0  0  0  0  0  0  0  0  0  0  0  0
  1  2  2  0
  3  1  1  0
  2  4  1  0
  5  3  1  0
  4  5  2  0
M  END
>  <attachment_idx>  (32) 
0

>  <count>  (32) 
66

$$$$

     RDKit          2D

  5  5  0  0  0  0  0  0  0  0999 V2000
    1.2760   -0.0000    0.0000 C   0  0  0  0  0  0  0  0  0  0  0  0
    0.3943    1.2135    0.0000 C   0  0  0  0  0  0  0  0  0  0  0  0
    0.3943   -1.2135    0.0000 C   0  0  0  0  0  0  0  0  0  0  0  0
   -1.0323    0.7500    0.0000 C   0  0  0  0  0  0  0  0  0  0  0  0
   -1.0323   -0.7500    0.0000 O   0  0  0  0  0  0  0  0  0  0  0  0
  1  2  1  6
  3  1  1  0
  2  4  1  0
  5  3  1  0
  4  5  1  0
M  END
>  <attachment_idx>  (33) 
0

>  <count>  (33) 
66

$$$$

     RDKit          2D

  7  7  0  0  0  0  0  0  0  0999 V2000
    1.9286   -0.0000    0.0000 C   0  0  0  0  0  0  0  0  0  0  0  0
    1.1786   -1.2990    0.0000 C   0  0  0  0  0  0  0  0  0  0  0  0
    1.1786    1.2990    0.0000 C   0  0  0  0  0  0  0  0  0  0  0  0
   -0.3214   -1.2990    0.0000 C   0  0  0  0  0  0  0  0  0  0  0  0
   -0.3214    1.2990    0.0000 C   0  0  0  0  0  0  0  0  0  0  0  0
   -1.0714    0.0000    0.0000 N   0  0  0  0  0  0  0  0  0  0  0  0
   -2.5714    0.0000    0.0000 C   0  0  0  0  0  0  0  0  0  0  0  0
  1  2  1  0
  3  1  1  0
  2  4  1  0
  5  3  1  0
  4  6  1  0
  6  5  1  0
  6  7  1  0
M  END
>  <attachment_idx>  (34) 
0

>  <count>  (34) 
64

$$$$

     RDKit          2D

  5  5  0  0  0  0  0  0  0  0999 V2000
    1.2760   -0.0000    0.0000 N   0  0  0  0  0  0  0  0  0  0  0  0
    0.3943    1.2135    0.0000 C   0  0  0  0  0  0  0  0  0  0  0  0
    0.3943   -1.2135    0.0000 C   0  0  0  0  0  0  0  0  0  0  0  0
   -1.0323    0.7500    0.0000 C   0  0  0  0  0  0  0  0  0  0  0  0
   -1.0323   -0.7500    0.0000 C   0  0  0  0  0  0  0  0  0  0  0  0
  1  2  1  0
  3  1  1  0
  2  4  1  0
  5  3  1  0
  4  5  1  0
M  END
>  <attachment_idx>  (35) 
0

>  <count>  (35) 
62

$$$$

     RDKit          2D

  4  3  0  0  0  0  0  0  0  0999 V2000
    0.0000    0.0000    0.0000 S   0  0  0  0  0  0  0  0  0  0  0  0
   -1.2990   -0.7500    0.0000 C   0  0  0  0  0  0  0  0  0  0  0  0
    1.2990   -0.7500    0.0000 O   0  0  0  0  0  0  0  0  0  0  0  0
    0.0000    1.5000    0.0000 O   0  0  0  0  0  0  0  0  0  0  0  0
  2  1  1  0
  1  3  2  0
  1  4  2  0
M  END
>  <attachment_idx>  (36) 
0

>  <count>  (36) 
62

$$$$

     RDKit          2D

 11 12  0  0  0  0  0  0  0  0999 V2000
   -1.8864   -1.3611    0.0000 C   0  0  0  0  0  0  0  0  0  0  0  0
   -3.0539   -0.4194    0.0000 C   0  0  0  0  0  0  0  0  0  0  0  0
   -0.4870   -0.8209    0.0000 C   0  0  0  0  0  0  0  0  0  0  0  0
   -2.8220    1.0626    0.0000 C   0  0  0  0  0  0  0  0  0  0  0  0
    0.6805   -1.7627    0.0000 C   0  0  0  0  0  0  0  0  0  0  0  0
   -0.2552    0.6610    0.0000 C   0  0  0  0  0  0  0  0  0  0  0  0
   -1.4227    1.6028    0.0000 N   0  0  0  0  0  0  0  0  0  0  0  0
    2.0798   -1.2225    0.0000 C   0  0  0  0  0  0  0  0  0  0  0  0
    1.1442    1.2012    0.0000 N   0  0  0  0  0  0  0  0  0  0  0  0
    2.3117    0.2594    0.0000 C   0  0  0  0  0  0  0  0  0  0  0  0
    3.7110    0.7996    0.0000 O   0  0  0  0  0  0  0  0  0  0  0  0
  1  2  1  0
  3  1  2  0
  2  4  2  0
  5  3  1  0
  3  6  1  0
  4  7  1  0
  8  5  1  0
  7  6  2  0
  6  9  1  0
 10  8  1  0
  9 10  1  0
 10 11  2  0
M  END
>  <attachment_idx>  (37) 
0

>  <count>  (37) 
62

$$$$

     RDKit          2D

  4  3  0  0  0  0  0  0  0  0999 V2000
    0.0000    0.0000    0.0000 C   0  0  0  0  0  0  0  0  0  0  0  0
   -1.2990   -0.7500    0.0000 C   0  0  0  0  0  0  0  0  0  0  0  0
    1.2990   -0.7500    0.0000 C   0  0  0  0  0  0  0  0  0  0  0  0
    0.0000    1.5000    0.0000 O   0  0  0  0  0  0  0  0  0  0  0  0
  1  2  1  0
  1  3  1  0
  1  4  1  0
M  END
>  <attachment_idx>  (38) 
0

>  <count>  (38) 
57

$$$$

     RDKit          2D

  8  7  0  0  0  0  0  0  0  0999 V2000
   -0.7500    1.5000    0.0000 C   0  0  0  0  0  0  0  0  0  0  0  0
   -0.7500   -0.0000    0.0000 C   0  0  0  0  0  0  0  0  0  0  0  0
   -0.7500   -1.5000    0.0000 C   0  0  0  0  0  0  0  0  0  0  0  0
   -2.2500   -0.0000    0.0000 C   0  0  0  0  0  0  0  0  0  0  0  0
    0.7500    0.0000    0.0000 C   0  0  0  0  0  0  0  0  0  0  0  0
    2.2500    0.0000    0.0000 F   0  0  0  0  0  0  0  0  0  0  0  0
    0.7500   -1.5000    0.0000 F   0  0  0  0  0  0  0  0  0  0  0  0
    0.7500    1.5000    0.0000 F   0  0  0  0  0  0  0  0  0  0  0  0
  1  2  1  0
  2  3  1  0
  2  4  1  0
  2  5  1  0
  5  6  1  0
  5  7  1  0
  5  8  1  0
M  END
>  <attachment_idx>  (39) 
0

>  <count>  (39) 
57

$$$$

     RDKit          2D

 10 11  0  0  0  0  0  0  0  0999 V2000
   -0.9564   -1.8765    0.0000 C   0  0  0  0  0  0  0  0  0  0  0  0
   -2.1766   -1.0042    0.0000 C   0  0  0  0  0  0  0  0  0  0  0  0
    0.2503   -0.9854    0.0000 C   0  0  0  0  0  0  0  0  0  0  0  0
   -1.7242    0.4260    0.0000 N   0  0  0  0  0  0  0  0  0  0  0  0
    1.7199   -1.2860    0.0000 C   0  0  0  0  0  0  0  0  0  0  0  0
   -0.2242    0.4375    0.0000 C   0  0  0  0  0  0  0  0  0  0  0  0
   -2.6152    1.6326    0.0000 C   0  0  0  0  0  0  0  0  0  0  0  0
    2.7150   -0.1635    0.0000 C   0  0  0  0  0  0  0  0  0  0  0  0
    0.7709    1.5600    0.0000 C   0  0  0  0  0  0  0  0  0  0  0  0
    2.2404    1.2594    0.0000 C   0  0  0  0  0  0  0  0  0  0  0  0
  1  2  2  0
  3  1  1  0
  2  4  1  0
  5  3  2  0
  3  6  1  0
  4  7  1  0
  4  6  1  0
  8  5  1  0
  6  9  2  0
 10  8  2  0
  9 10  1  0
M  END
>  <attachment_idx>  (40) 
0

>  <count>  (40) 
55

$$$$

     RDKit          2D

  4  3  0  0  0  0  0  0  0  0999 V2000
    0.5994   -0.4508    0.0000 C   0  0  0  0  0  0  0  0  0  0  0  0
   -0.5994    0.4508    0.0000 C   0  0  0  0  0  0  0  0  0  0  0  0
    1.9796    0.1365    0.0000 O   0  0  0  0  0  0  0  0  0  0  0  0
   -1.9796   -0.1365    0.0000 C   0  0  0  0  0  0  0  0  0  0  0  0
  2  1  1  0
  1  3  2  0
  4  2  1  0
M  END
>  <attachment_idx>  (41) 
0

>  <count>  (41) 
54

$$$$

     RDKit          2D

  6  5  0  0  0  0  0  0  0  0999 V2000
   -2.1651    0.0000    0.0000 C   0  0  0  0  0  0  0  0  0  0  0  0
   -0.8660    0.7500    0.0000 C   0  0  0  0  0  0  0  0  0  0  0  0
    0.4330   -0.0000    0.0000 S   0  0  0  0  0  0  0  0  0  0  0  0
    1.7321   -0.7500    0.0000 C   0  0  0  0  0  0  0  0  0  0  0  0
   -0.3170   -1.2990    0.0000 O   0  0  0  0  0  0  0  0  0  0  0  0
    1.1830    1.2990    0.0000 O   0  0  0  0  0  0  0  0  0  0  0  0
  2  1  1  0
  3  2  1  0
  4  3  1  0
  3  5  2  0
  3  6  2  0
M  END
>  <attachment_idx>  (42) 
0

>  <count>  (42) 
48

$$$$

     RDKit          2D

  5  4  0  0  0  0  0  0  0  0999 V2000
   -1.2990   -0.7500    0.0000 C   0  0  0  0  0  0  0  0  0  0  0  0
    0.0000   -0.0000    0.0000 C   0  0  0  0  0  0  0  0  0  0  0  0
    1.2990    0.7500    0.0000 C   0  0  0  0  0  0  0  0  0  0  0  0
    0.7500   -1.2990    0.0000 C   0  0  0  0  0  0  0  0  0  0  0  0
   -0.7500    1.2990    0.0000 O   0  0  0  0  0  0  0  0  0  0  0  0
  2  1  1  0
  3  2  1  0
  2  4  1  0
  2  5  1  0
M  END
>  <attachment_idx>  (43) 
0

>  <count>  (43) 
48

$$$$

     RDKit          2D

  7  7  0  0  0  0  0  0  0  0999 V2000
   -1.1786   -1.2990    0.0000 C   0  0  0  0  0  0  0  0  0  0  0  0
   -1.9286    0.0000    0.0000 C   0  0  0  0  0  0  0  0  0  0  0  0
    0.3214   -1.2990    0.0000 C   0  0  0  0  0  0  0  0  0  0  0  0
   -1.1786    1.2990    0.0000 C   0  0  0  0  0  0  0  0  0  0  0  0
    1.0714    0.0000    0.0000 C   0  0  0  0  0  0  0  0  0  0  0  0
    0.3214    1.2990    0.0000 C   0  0  0  0  0  0  0  0  0  0  0  0
    2.5714    0.0000    0.0000 C   0  0  0  0  0  0  0  0  0  0  0  0
  2  1  2  0
  1  3  1  0
  4  2  1  0
  3  5  2  0
  6  4  2  0
  7  5  1  0
  5  6  1  0
M  END
>  <attachment_idx>  (44) 
0

>  <count>  (44) 
46

$$$$

     RDKit          2D

  9  9  0  0  0  0  0  0  0  0999 V2000
    1.2990   -1.4167    0.0000 C   0  0  0  0  0  0  0  0  0  0  0  0
   -0.0000   -2.1667    0.0000 C   0  0  0  0  0  0  0  0  0  0  0  0
    1.2990    0.0833    0.0000 C   0  0  0  0  0  0  0  0  0  0  0  0
   -1.2990   -1.4167    0.0000 C   0  0  0  0  0  0  0  0  0  0  0  0
    0.0000    0.8333    0.0000 C   0  0  0  0  0  0  0  0  0  0  0  0
    2.5981    0.8333    0.0000 F   0  0  0  0  0  0  0  0  0  0  0  0
   -1.2990    0.0833    0.0000 C   0  0  0  0  0  0  0  0  0  0  0  0
    0.0000    2.3333    0.0000 Cl  0  0  0  0  0  0  0  0  0  0  0  0
   -2.5981    0.8333    0.0000 Cl  0  0  0  0  0  0  0  0  0  0  0  0
  1  2  2  0
  3  1  1  0
  2  4  1  0
  5  3  2  0
  3  6  1  0
  4  7  2  0
  7  5  1  0
  5  8  1  0
  7  9  1  0
M  END
>  <attachment_idx>  (45) 
0

>  <count>  (45) 
45

$$$$

     RDKit          2D

 12 13  0  0  0  0  0  0  0  0999 V2000
    2.1645   -1.3529    0.0000 C   0  0  0  0  0  0  0  0  0  0  0  0
    0.7139   -0.9713    0.0000 C   0  0  0  0  0  0  0  0  0  0  0  0
    3.2203   -0.2874    0.0000 C   0  0  0  0  0  0  0  0  0  0  0  0
   -0.3419   -2.0368    0.0000 C   0  0  0  0  0  0  0  0  0  0  0  0
    0.3190    0.4758    0.0000 C   0  0  0  0  0  0  0  0  0  0  0  0
    2.8255    1.1597    0.0000 C   0  0  0  0  0  0  0  0  0  0  0  0
   -1.7926   -1.6553    0.0000 C   0  0  0  0  0  0  0  0  0  0  0  0
    1.3748    1.5413    0.0000 C   0  0  0  0  0  0  0  0  0  0  0  0
   -1.1316    0.8573    0.0000 C   0  0  0  0  0  0  0  0  0  0  0  0
   -2.1874   -0.2082    0.0000 N   0  0  0  0  0  0  0  0  0  0  0  0
   -1.5265    2.3044    0.0000 O   0  0  0  0  0  0  0  0  0  0  0  0
   -3.6381    0.1734    0.0000 C   0  0  0  0  0  0  0  0  0  0  0  0
  2  1  2  0
  1  3  1  0
  4  2  1  0
  5  2  1  0
  3  6  2  0
  7  4  2  0
  8  5  2  0
  5  9  1  0
  6  8  1  0
 10  7  1  0
  9 11  2  0
  9 10  1  0
 12 10  1  0
M  END
>  <attachment_idx>  (46) 
0

>  <count>  (46) 
45

$$$$

     RDKit          2D

  7  7  0  0  0  0  0  0  0  0999 V2000
    1.9286   -0.0000    0.0000 C   0  0  0  0  0  0  0  0  0  0  0  0
    1.1786   -1.2990    0.0000 C   0  0  0  0  0  0  0  0  0  0  0  0
    1.1786    1.2990    0.0000 C   0  0  0  0  0  0  0  0  0  0  0  0
   -0.3214   -1.2990    0.0000 C   0  0  0  0  0  0  0  0  0  0  0  0
   -0.3214    1.2990    0.0000 C   0  0  0  0  0  0  0  0  0  0  0  0
   -1.0714    0.0000    0.0000 C   0  0  0  0  0  0  0  0  0  0  0  0
   -2.5714    0.0000    0.0000 Cl  0  0  0  0  0  0  0  0  0  0  0  0
  2  1  2  0
  1  3  1  0
  4  2  1  0
  3  5  2  0
  6  4  2  0
  5  6  1  0
  7  6  1  0
M  END
>  <attachment_idx>  (47) 
0

>  <count>  (47) 
44

$$$$

     RDKit          2D

 11 12  0  0  0  0  0  0  0  0999 V2000
    3.1917   -0.7500    0.0000 C   0  0  0  0  0  0  0  0  0  0  0  0
    3.1917    0.7500    0.0000 C   0  0  0  0  0  0  0  0  0  0  0  0
    1.7652   -1.2135    0.0000 C   0  0  0  0  0  0  0  0  0  0  0  0
    1.7652    1.2135    0.0000 N   0  0  0  0  0  0  0  0  0  0  0  0
    0.8835   -0.0000    0.0000 N   0  0  0  0  0  0  0  0  0  0  0  0
   -0.6165    0.0000    0.0000 S   0  0  0  0  0  0  0  0  0  0  0  0
   -0.6165   -1.5000    0.0000 O   0  0  0  0  0  0  0  0  0  0  0  0
   -0.6165    1.5000    0.0000 O   0  0  0  0  0  0  0  0  0  0  0  0
   -2.1165    0.0000    0.0000 C   0  0  0  0  0  0  0  0  0  0  0  0
   -3.4156   -0.7500    0.0000 C   0  0  0  0  0  0  0  0  0  0  0  0
   -3.4156    0.7500    0.0000 C   0  0  0  0  0  0  0  0  0  0  0  0
  1  2  1  0
  3  1  2  0
  2  4  2  0
  5  3  1  0
  4  5  1  0
  5  6  1  0
  6  7  2  0
  6  8  2  0
  6  9  1  0
  9 10  1  0
 11  9  1  0
 10 11  1  0
M  END
>  <attachment_idx>  (48) 
0

>  <count>  (48) 
41

$$$$

     RDKit          2D

  6  6  0  0  0  0  0  0  0  0999 V2000
    0.0684   -1.2135    0.0000 C   0  0  0  0  0  0  0  0  0  0  0  0
    1.4949   -0.7500    0.0000 C   0  0  0  0  0  0  0  0  0  0  0  0
   -0.8133    0.0000    0.0000 N   0  0  0  0  0  0  0  0  0  0  0  0
    1.4949    0.7500    0.0000 C   0  0  0  0  0  0  0  0  0  0  0  0
   -2.3133    0.0000    0.0000 C   0  0  0  0  0  0  0  0  0  0  0  0
    0.0684    1.2135    0.0000 C   0  0  0  0  0  0  0  0  0  0  0  0
  1  2  1  1
  1  3  1  0
  4  2  1  0
  5  3  1  0
  3  6  1  0
  6  4  1  0
M  END
>  <attachment_idx>  (49) 
0

>  <count>  (49) 
40

$$$$

     RDKit          2D

  4  4  0  0  0  0  0  0  0  0999 V2000
    1.0607   -0.0000    0.0000 C   0  0  0  0  0  0  0  0  0  0  0  0
   -0.0000   -1.0607    0.0000 C   0  0  0  0  0  0  0  0  0  0  0  0
    0.0000    1.0607    0.0000 C   0  0  0  0  0  0  0  0  0  0  0  0
   -1.0607    0.0000    0.0000 O   0  0  0  0  0  0  0  0  0  0  0  0
  1  2  1  0
  3  1  1  0
  2  4  1  0
  4  3  1  0
M  END
>  <attachment_idx>  (50) 
0

>  <count>  (50) 
39

$$$$
